GLA
 OpenBabel07261815293D

 17 17  0  0  0  0  0  0  0  0999 V2000
    1.2050    0.7930    0.6150 O   0  0  0  0  0  0  0  0  0  0  0  0
    1.3864    1.7350    0.7501 H   0  0  0  0  0  0  0  0  0  0  0  0
    4.5943    2.9341   -0.4479 O   0  0  0  0  0  0  0  0  0  0  0  0
    2.5500    3.0036    0.5245 O   0  0  0  0  0  0  0  0  0  0  0  0
    3.5750   -3.3250   -0.1090 N   0  0  0  0  0  0  0  0  0  0  0  0
    4.4320   -3.8200   -0.3140 H   0  0  0  0  0  0  0  0  0  0  0  0
    2.7330   -3.8580    0.0540 H   0  0  0  0  0  0  0  0  0  0  0  0
    3.5280    0.8890    0.0450 C   0  0  0  0  0  0  0  0  0  0  0  0
    2.3660    0.1500    0.2840 C   0  0  0  0  0  0  0  0  0  0  0  0
    3.5610   -1.9420   -0.0550 C   0  0  0  0  0  0  0  0  0  0  0  0
    2.3800   -1.2500    0.2300 C   0  0  0  0  0  0  0  0  0  0  0  0
    1.4710   -1.8120    0.4220 H   0  0  0  0  0  0  0  0  0  0  0  0
    4.7140    0.1870   -0.2250 C   0  0  0  0  0  0  0  0  0  0  0  0
    5.6350    0.7410   -0.3990 H   0  0  0  0  0  0  0  0  0  0  0  0
    4.7280   -1.2100   -0.2770 C   0  0  0  0  0  0  0  0  0  0  0  0
    5.6640   -1.7180   -0.4930 H   0  0  0  0  0  0  0  0  0  0  0  0
    3.5630    2.3910    0.0630 C   0  0  0  0  0  0  0  0  0  0  0  0
  1  2  1  0  0  0  0
  1  9  1  0  0  0  0
  3 17  2  0  0  0  0
  4 17  1  0  0  0  0
  5  6  1  0  0  0  0
  5  7  1  0  0  0  0
  5 10  1  0  0  0  0
  8  9  2  0  0  0  0
  8 13  1  0  0  0  0
  8 17  1  0  0  0  0
  9 11  1  0  0  0  0
 10 11  2  0  0  0  0
 10 15  1  0  0  0  0
 11 12  1  0  0  0  0
 13 14  1  0  0  0  0
 13 15  2  0  0  0  0
 15 16  1  0  0  0  0
M  END
$$$$
